*Heading
** Job name: Job-3 Model name: Model-1
** Generated by: Abaqus/CAE 2023
*Preprint, echo=NO, model=NO, history=NO, contact=NO
**
** PARTS
**
*Part, name=bar
*End Part
**  
**
** ASSEMBLY
**
*Assembly, name=Assembly
**  
*Instance, name=bar-1, part=bar
*Node
      1,           0.,           0., 0.00700000022
      2,           0., 0.0364999995, 0.00700000022
      3,           0., 0.0414999984, 0.00400000019
      4,           0., 0.0715000033, 0.00400000019
      5,           0., 0.0734999999, 0.00400000019
      6,           0.,  0.103500001, 0.00400000019
      7,           0.,  0.108499996, 0.00700000022
      8,           0.,  0.144999996, 0.00700000022
      9, 0.00145538186,           0., 0.00684703328
     10, 0.00284715649,           0., 0.00639481843
     11, 0.00411449699,           0., 0.00566311879
     12,  0.005202014,           0., 0.00468391413
     13, 0.00606217794,           0., 0.00350000011
     14, 0.00665739551,           0., 0.00216311892
     15, 0.00696165347,           0., 0.000731699227
     16, 0.00696165347,           0., -0.000731699227
     17, 0.00665739551,           0., -0.00216311892
     18, 0.00606217794,           0., -0.00350000011
     19,  0.005202014,           0., -0.00468391413
     20, 0.00411449699,           0., -0.00566311879
** ... 10775 like lines cut
*Element, type=C3D4
    1,  4220,  4221,  4222,  4223
    2,  4224,  4225,  2238,  4226
    3,  4227,  4223,  4221,  4228
    4,  4227,  4229,  4223,  4228
    5,  4222,  4221,  4230,  4227
    6,  4231,  4232,  3784,  4233
    7,  4227,  4234,  4221,  4230
    8,  4227,  4223,  4235,  4222
    9,  4236,  4237,  4238,  4239
   10,  4236,  4240,  4241,  4242
   11,  4236,  4238,  4237,  4243
   12,  4236,  4244,  4245,  4246
   13,  4236,  4242,  4243,  4247
   14,  4236,  4243,  4244,  4247
   15,  4248,  4249,  4250,  4251
   16,  4248,  4251,  4252,  4253
   17,  4248,  4254,  4255,  4256
   18,  4248,  4255,  4253,  4257
   19,  4248,  4254,  4256,  4258
   20,  4248,  4249,  4259,  4260
** ... 51913 like lines cut
*Nset, nset=Set-1, generate
     1,  10795,      1
*Elset, elset=Set-1, generate
     1,  51933,      1
** Section: Section-1
*Solid Section, elset=Set-1, material=metal
,
*End Instance
**  
*Node
      1, 4.28626382e-19,  0.144999996,           0.
*Nset, nset=Set-1, instance=bar-1
   1,   9,  10,  11,  12,  13,  14,  15,  16,  17,  18,  19,  20,  21,  22,  23
  24,  25,  26,  27,  28,  29,  30,  31,  32,  33,  34,  35,  36,  37, 241, 242
 243, 244, 245, 246, 247, 248, 249, 250, 251, 252, 253, 254, 255, 256, 257, 258
 259, 260, 261, 262, 263, 264, 265, 266, 267, 268, 269, 270, 271, 272, 273, 274
 275, 276, 277, 278, 279, 280, 281, 282, 283, 284, 285, 286, 287, 288, 289, 290
 291, 292, 293, 294, 295, 296, 297, 298, 299, 300, 301, 302, 303, 304, 305, 306
 307, 308, 309, 310
*Elset, elset=Set-1, instance=bar-1
  4880,  4992,  5006,  5871,  5880,  5885,  5891,  5903,  5911,  5912,  5915,  5924,  5929,  5938,  5951,  5957
  5962,  5967,  5968,  5976,  5980,  5992,  6009,  6015,  6021,  6029,  6037,  6039,  6042,  6044,  6060,  6064
  6075,  6086,  6090,  6096,  6102,  6109,  6111,  6121,  6127,  6138,  6142,  6153,  6170,  6172,  6175,  6187
  6200,  6202,  6205,  6208,  6209,  6218,  6231,  6233,  6234,  6235,  6241,  6251,  6259,  6260,  6273,  6281
  6286,  6292,  6310,  6311,  6314,  6315,  6317,  6319,  6341,  6347,  6350,  6354,  6360,  6363,  6364,  6365
  6367,  6388,  6390,  6403,  9606,  9719,  9862,  9900,  9903,  9961, 10029, 10033, 10143, 10188, 10197, 10208
 10209, 10215, 10222, 10223, 10232, 10249, 10263, 10265, 10271, 10272, 10276, 10293, 10309, 10317, 10328, 10333
 10352, 10373, 10413, 10423, 10439, 10478, 10482, 10517, 10524, 10530, 10539, 10544, 10553, 10554, 10563, 10571
 10590, 10597, 10626, 10633, 10645, 10653, 10654, 10673, 10678, 10681, 10736, 10739, 10749, 10756, 10758, 10772
 10801, 10841, 10940, 10947, 11136, 11147, 11151, 11158, 11167, 11235, 11238, 11251, 11280, 14858, 24182, 25406
 32122, 32182, 33151, 34330, 34404, 35673, 36476, 37777
*Nset, nset=Set-2, instance=bar-1
    8,  212,  213,  214,  215,  216,  217,  218,  219,  220,  221,  222,  223,  224,  225,  226
  227,  228,  229,  230,  231,  232,  233,  234,  235,  236,  237,  238,  239,  240, 4151, 4152
 4153, 4154, 4155, 4156, 4157, 4158, 4159, 4160, 4161, 4162, 4163, 4164, 4165, 4166, 4167, 4168
 4169, 4170, 4171, 4172, 4173, 4174, 4175, 4176, 4177, 4178, 4179, 4180, 4181, 4182, 4183, 4184
 4185, 4186, 4187, 4188, 4189, 4190, 4191, 4192, 4193, 4194, 4195, 4196, 4197, 4198, 4199, 4200
 4201, 4202, 4203, 4204, 4205, 4206, 4207, 4208, 4209, 4210, 4211, 4212, 4213, 4214, 4215, 4216
 4217, 4218, 4219
*Elset, elset=Set-2, instance=bar-1
    37,   491,   581,   615,   865,   981,  1352,  1585,  2240,  2318,  2852,  2856,  3220,  3355,  3494,  3568
  3648,  3732,  3815,  3880,  3902,  4172,  4330,  4339,  4547,  4649,  4753,  5039,  5059,  5377,  5593,  5741
  5769,  5861,  6414,  6913,  7079,  7469,  7651,  7810,  7830,  7935,  8093,  8803,  9050,  9445,  9453,  9636
  9837, 10068, 10229, 10444, 10576, 12019, 12135, 12214, 12244, 12402, 13007, 13013, 13024, 13041, 13313, 13980
 14943, 14973, 15302, 15433, 15552, 16297, 16372, 16448, 16475, 16487, 16514, 17487, 17488, 17489, 17500, 17665
 17668, 18110, 18273, 18670, 19610, 19680, 19965, 20136, 20420, 20758, 21423, 21880, 22568, 22808, 22811, 22912
 22987, 23482, 23591, 23964, 24002, 24006, 24633, 24765, 26588, 26925, 28292, 28396, 28518, 28866, 29200, 29268
 29425, 29465, 29924, 29960, 30054, 30259, 30407, 30420, 30438, 30576, 30628, 30688, 30758, 30916, 30971, 31071
 31580, 31582, 31780, 31794, 31808, 31828, 31894, 31990, 32022, 32085, 32131, 32254, 32257, 32438, 32441, 32861
 33443, 33509, 33510, 33674, 33688, 33708, 33823, 33828, 34033, 34344, 35002, 35224, 35227, 35869, 35882, 37061
 37824, 39188, 40951, 40955, 51880, 51883
*Nset, nset=Set-11
 1,
*Nset, nset=m_Set-10
 1,
*Elset, elset=_s_Surf-1_S3, internal, instance=bar-1
    37,   491,   581,   615,   865,   981,  1352,  1585,  2240,  2318,  2852,  2856,  3220,  3355,  3494,  3568
  3648,  3732,  3815,  3880,  3902,  4172,  4330,  4339,  4547,  4649,  4753,  5039,  5377,  5593,  5741,  5769
  5861,  6913,  7079,  7469,  7651,  7810,  7830,  7935,  8093,  9050,  9445,  9453,  9636, 10068, 10229, 10444
 10576, 12019, 12135, 13007, 13013, 13024, 13041, 13313, 13980, 14943, 14973, 15302, 15433, 15552, 16297, 16372
 16448, 16487, 17668, 18110, 18273, 19610, 19680, 19965, 20136, 20420, 20758, 21423, 22808, 22811, 22912, 22987
 23591, 23964, 24006, 24633, 26588, 26925, 28292, 28396, 28518, 28866, 29960, 30420, 30971, 31071, 31582, 31780
 31808, 31828, 31894, 31990, 32022, 32085, 32131, 32254, 32257, 32438, 32441, 33443, 33509, 33510, 33674, 33688
 33708, 33823, 33828, 34033, 34344, 35002, 35224, 35227, 37061, 39188, 40951, 40955, 51880, 51883
*Elset, elset=_s_Surf-1_S1, internal, instance=bar-1
  5059,  6414,  8803, 17488, 17500, 17665, 21880, 23482, 24765, 30054, 30407, 30438, 30576, 31794
*Elset, elset=_s_Surf-1_S4, internal, instance=bar-1
  9837, 12214, 12244, 16475, 17487, 18670, 22568, 24002, 29924, 30259, 32861, 35882, 37824
*Elset, elset=_s_Surf-1_S2, internal, instance=bar-1
 12402, 16514, 17489, 29200, 29268, 29425, 29465, 30628, 30688, 30758, 30916, 31580, 35869
*Surface, type=ELEMENT, name=s_Surf-1
_s_Surf-1_S3, S3
_s_Surf-1_S1, S1
_s_Surf-1_S4, S4
_s_Surf-1_S2, S2
** Constraint: Constraint-1
*Coupling, constraint name=Constraint-1, ref node=m_Set-10, surface=s_Surf-1
*Kinematic
*End Assembly
*Amplitude, name=Amp-1
             0.,              0.,              1.,           0.001
** 
** MATERIALS
** 
*Material, name=metal
*Density
7800.,
*Depvar, delete=3
     3,
*User Material, constants=14
 1.08e+11, 0.3, 300.0e6, 200.0e6, 10.0, 1.5, 1.0, 2.25
 0.001, 0.04, 0.4, 0.1, 0.0045, 0.3
** ----------------------------------------------------------------
** 
** STEP: Step-1
** 
*Step, name=Step-1, nlgeom=YES
*Dynamic, Explicit
, 1.
*Bulk Viscosity
0.06, 1.2
** 
** BOUNDARY CONDITIONS
** 
** Name: BC-1 Type: 
*Boundary
Set-1, ENCASTRE
** Name: BC-2 Type: /
*Boundary, amplitude=Amp-1
Set-11, 2, 2, 1.
** 
** OUTPUT REQUESTS
** 
** FIELD OUTPUT: F-Output-1
** 
*Output, field, time interval=0.002
*Node Output
A, U, V
*Element Output, directions=YES
EVF, LE, PE, PEEQ, PEEQVAVG, PEVAVG, S, SDV, STATUS, SVAVG, TEMP
** 
** HISTORY OUTPUT: H-Output-2
** 
*Output, history, time interval=0.002
*Node Output, nset=m_Set-10
RF2, 
*Energy Output
ALLAE, ALLIE, ALLKE, ALLSE, ALLWK, ETOTAL
** 
** HISTORY OUTPUT: H-Output-1
** 
*End Step
